@<TRIPOS>MOLECULE
C:\Curing_Agent_2.pdb
 26 26 0 0 0
SMALL
GASTEIGER
@<TRIPOS>ATOM
      1  O         -2.5470    1.5270    0.0000 O.3     0  UNK0       -0.4804
      2  C         -1.8900    2.8610    0.0000 C.2     0  UNK0        0.3085
      3  O         -2.0020    4.0340    0.0000 O.2     0  UNK0       -0.2507
      4  C          0.0050    1.1230    0.0000 C.3     0  UNK0        0.0657
      5  C         -0.3150   -0.3840    0.0000 C.3     0  UNK0       -0.0369
      6  C          0.8290   -1.4140    0.0000 C.3     0  UNK0       -0.0431
      7  C          2.2940   -0.9380    0.0000 C.3     0  UNK0       -0.0498
      8  C          2.6140    0.5680    0.0000 C.3     0  UNK0       -0.0428
      9  C         -0.5760   -2.8270    0.0000 C.3     0  UNK0       -0.0624
     10  C          2.6140    2.6290    0.0000 C.2     0  UNK0        0.1241
     11  O          2.4940    3.5780    0.0000 O.2     0  UNK0       -0.3007
     12  H          4.0790    3.2250    0.0000 H       0  UNK0        0.1029
     13  H         -0.9470    0.0880    0.0000 H       0  UNK0        0.0276
     14  H         -1.0830   -0.7230    0.0000 H       0  UNK0        0.0276
     15  H          1.1090   -2.2020    0.0000 H       0  UNK0        0.0298
     16  H          2.3350   -1.6870    0.0000 H       0  UNK0        0.0268
     17  H          3.0420   -0.7720    0.0000 H       0  UNK0        0.0268
     18  H          3.3400    1.3240    0.0000 H       0  UNK0        0.0272
     19  H          3.4950    0.3000    0.0000 H       0  UNK0        0.0272
     20  H         -0.2870    1.9960    0.0000 H       0  UNK0        0.0420
     21  H          1.1890    2.5350    0.0000 H       0  UNK0        0.0382
     22  H         -2.1080   -2.9880    0.0000 H       0  UNK0        0.0232
     23  H         -1.3460   -4.1610    0.0000 H       0  UNK0        0.0232
     24  H          0.6700   -3.7320    0.0000 H       0  UNK0        0.0232
     25  C          1.4690    1.5990    0.0000 C.3     0  UNK0        0.0274
     26  H         -4.0790    1.6880    0.0000 H       0  UNK0        0.2951
@<TRIPOS>BOND
     1     1     2    1
     2     1    26    1
     3     2     3    2
     4     2     4    1
     5     4     5    1
     6     4    20    1
     7     4    25    1
     8     5     6    1
     9     5    13    1
    10     5    14    1
    11     6     7    1
    12     6    15    1
    13     6     9    1
    14     7     8    1
    15     7    16    1
    16     7    17    1
    17     8    18    1
    18     8    19    1
    19     8    25    1
    20     9    22    1
    21     9    23    1
    22     9    24    1
    23    10    11    2
    24    10    25    1
    25    10    12    1
    26    21    25    1
