@<TRIPOS>MOLECULE
C:\Repeat_Unit_Linear.pdb
 66 67 0 0 0
SMALL
GASTEIGER

@<TRIPOS>ATOM
      1  B        -10.0330    0.4280    0.0000 O.3     0  UNK0       -0.3887
      2  C         -8.4930    0.4280    0.0000 C.3     0  UNK0        0.0864
      3  C         -6.9530    0.4280    0.0000 C.3     0  UNK0        0.1151
      4  O         -5.5460    1.0540    0.0000 O.3     0  UNK0       -0.4890
      5  C         -4.2130    0.2840    0.0000 C.ar    0  UNK0        0.1275
      6  C         -4.2130   -1.2560    0.0000 C.ar    0  UNK0       -0.0194
      7  C         -2.8790   -2.0260    0.0000 C.ar    0  UNK0       -0.0548
      8  C         -1.5450   -1.2560    0.0000 C.ar    0  UNK0       -0.0194
      9  C         -1.5450    0.2840    0.0000 C.ar    0  UNK0        0.1275
     10  C         -2.8790    1.0540    0.0000 C.ar    0  UNK0        0.0384
     11  C         -2.8790    2.5940    0.0000 C.3     0  UNK0       -0.0146
     12  C         -1.4720    3.2200    0.0000 C.3     0  UNK0       -0.0584
     13  C         -4.2130    3.3640    0.0000 C.3     0  UNK0       -0.0584
     14  O         -0.7530    0.7900    0.0000 O.3     0  UNK0       -0.4885
     15  C          1.0340    0.1490    0.0000 C.3     0  UNK0        0.1244
     16  C          2.3680    0.9190    0.0000 C.3     0  UNK0        0.1684
     17  C          3.6140    0.0130    0.0000 C.3     0  UNK0        0.1273
     18  O          4.9480    0.7830    0.0000 O.3     0  UNK0       -0.4613
     19  C          5.6050    2.1180    0.0000 C.2     0  UNK0        0.3110
     20  O          5.4930    3.2910    0.0000 O.2     0  UNK0       -0.2505
     21  C          7.4990    0.3790    0.0000 C.3     0  UNK0        0.0659
     22  C          7.1790   -1.1270    0.0000 C.3     0  UNK0       -0.0369
     23  C          8.3230   -2.1580    0.0000 C.3     0  UNK0       -0.0431
     24  C          9.7880   -1.6820    0.0000 C.3     0  UNK0       -0.0498
     25  C         10.1080   -0.1750    0.0000 C.3     0  UNK0       -0.0428
     26  C          6.9180   -3.5700    0.0000 C.3     0  UNK0       -0.0624
     27  C         10.1080    1.8860    0.0000 C.2     0  UNK0        0.1241
     28  O         10.0300    2.7500    0.0000 O.2     0  UNK0       -0.3007
     29  H         -4.8570   -2.1200    0.0000 H       0  UNK0        0.0654
     30  H         -2.8790   -2.8160    0.0000 H       0  UNK0        0.0620
     31  H         -0.9310   -1.9840    0.0000 H       0  UNK0        0.0654
     32  H          0.9150   -0.6750    0.0000 H       0  UNK0        0.0728
     33  H          1.0100    1.3220    0.0000 H       0  UNK0        0.0728
     34  H          3.7750    1.5450    0.0000 H       0  UNK0        0.0729
     35  H          3.7450   -0.6850    0.0000 H       0  UNK0        0.0729
     36  H          6.5470   -0.6560    0.0000 H       0  UNK0        0.0276
     37  H          6.4110   -1.4670    0.0000 H       0  UNK0        0.0276
     38  H          8.6040   -2.9450    0.0000 H       0  UNK0        0.0298
     39  H          9.8300   -2.4300    0.0000 H       0  UNK0        0.0268
     40  H         10.5360   -1.5150    0.0000 H       0  UNK0        0.0268
     41  H         10.8340    0.5810    0.0000 H       0  UNK0        0.0272
     42  H         10.9900   -0.4430    0.0000 H       0  UNK0        0.0272
     43  H          7.2070    1.2530    0.0000 H       0  UNK0        0.0420
     44  H          8.6830    1.7910    0.0000 H       0  UNK0        0.0382
     45  H         -6.7160   -0.3700    0.0000 H       0  UNK0        0.0722
     46  H         -8.4930    1.9680    0.0000 H       0  UNK0        0.0624
     47  H         -1.3110    4.7520    0.0000 H       0  UNK0        0.0235
     48  H         -0.2260    4.1260    0.0000 H       0  UNK0        0.0235
     49  H         -0.6210    3.1450    0.0000 H       0  UNK0        0.0235
     50  H         -4.2130    4.9040    0.0000 H       0  UNK0        0.0235
     51  H         -5.4580    4.2690    0.0000 H       0  UNK0        0.0235
     52  H         -5.5460    2.5940    0.0000 H       0  UNK0        0.0235
     53  H         -2.7180    4.1260    0.0000 H       0  UNK0        0.0346
     54  H         -6.7920    1.9590    0.0000 H       0  UNK0        0.0722
     55  H          5.3870   -3.7310    0.0000 H       0  UNK0        0.0232
     56  H          6.1480   -4.9040    0.0000 H       0  UNK0        0.0232
     57  H          8.1640   -4.4750    0.0000 H       0  UNK0        0.0232
     58  H        -11.5730    0.4280    0.0000 H       0  UNK0        0.2099
     59  C          8.9640    0.8550    0.0000 C.3     0  UNK0        0.0274
     60  C         -8.8130   -1.0790   -2.0000 C.3     0  UNK0       -0.0357
     61  H        -10.3200   -1.3990   -2.0000 H       0  UNK0        0.0256
     62  F         -9.2890   -2.5430   -2.0000 H       0  UNK0        0.0256
     63  H         -7.9080   -2.3250   -2.0000 H       0  UNK0        0.0256
     64  O          2.3680    2.4590   -2.0000 O.3     0  UNK0       -0.3789
     65  H          2.3680    3.9990   -2.0000 H       0  UNK0        0.2106
     66  H         11.6480    1.8860    0.0000 H       0  UNK0        0.1029
@<TRIPOS>BOND
     1     1    58    1
     2     1     2    1
     3     2    46    1
     4     2     3    1
     5     2    60    1
     6     3     4    1
     7     3    45    1
     8     3    54    1
     9     4     5    1
    10     5     6   ar
    11     5    10   ar
    12     6     7   ar
    13     6    29    1
    14     7     8   ar
    15     7    30    1
    16     8     9   ar
    17     8    31    1
    18     9    10   ar
    19     9    14    1
    20    10    11    1
    21    11    13    1
    22    11    12    1
    23    11    53    1
    24    12    47    1
    25    12    48    1
    26    12    49    1
    27    13    50    1
    28    13    51    1
    29    13    52    1
    30    14    15    1
    31    15    16    1
    32    15    32    1
    33    15    33    1
    34    16    17    1
    35    16    64    1
    36    17    18    1
    37    17    34    1
    38    17    35    1
    39    18    19    1
    40    19    20    2
    41    19    21    1
    42    21    22    1
    43    21    43    1
    44    21    59    1
    45    22    23    1
    46    22    36    1
    47    22    37    1
    48    23    24    1
    49    23    38    1
    50    23    26    1
    51    24    25    1
    52    24    39    1
    53    24    40    1
    54    25    41    1
    55    25    42    1
    56    25    59    1
    57    26    55    1
    58    26    56    1
    59    26    57    1
    60    27    28    2
    61    27    59    1
    62    27    66    1
    63    44    59    1
    64    60    61    1
    65    60    62    1
    66    60    63    1
    67    64    65    1